<?xml version="1.0" encoding="UTF-8"?>


<routes xmlns:xsi="http://www.w3.org/2001/XMLSchema-instance" xsi:noNamespaceSchemaLocation="http://sumo.dlr.de/xsd/routes_file.xsd">
<vType id="bus" vClass="bus" color="green"/>
	<flow id="N18_frequency1" type="bus" begin="900" end="1800" period="900">
		<route edges="31342066 29238183#0 29238184#0 51856492#0 29027839#0 29027839#2 31343367#0 29048562#0 145069303#0 145069303#1 145069303#2 145069303#4 -26973015 24983010#0 24983010#1 161678033#0 -32350852#4 -32350852#3 -32350852#1 145069366#1 145069366#3 24982688#0 24982688#0.12 24982688#2 24982688#3 145069294#0 32201042 32201044#0 32201044#1 32201044#2 233673423 28418763 -379723624#1 -379723624#0 -32923867#4 -32923867#3 -32923867#2 -32923867#1 -32923867#0 130996520 130996520.58 172519650 306396705 174321447 58295043 32923863#2 266607804#0 266607804#1 266607804#2 266607803#0 266607803#1 266607803#2 266607792#0 266607792#5 39444316 -247392223#3 -201078448#1 379721536#0 201078447#0 201078447#3 39444748#0 39444748#1 39444748#4 39444748#5 39444748#8 201243230#0 201243230#1 233673410#0 233673410#1 233673410#5 233673410#6 266607801#0 266607801#1 266607802#0 266607802#1 266607795#0 266607795#1 266607795#6 266607800#0 201243226#0 266607805#0 266607805#1 41494424#0 233673422#0 233673422#2 233673422#4 233673422#5 233673422#7 233673422#9" />
	        <stop busStop="332" duration="7.00"/>
	        <stop busStop="200" duration="7.00"/>
	        <stop busStop="13" duration="7.00"/>
	        <stop busStop="328" duration="7.00"/>
	        <stop busStop="421" duration="7.00"/>
	        <stop busStop="134" duration="7.00"/>
	        <stop busStop="205" duration="7.00"/>
	        <stop busStop="361" duration="7.00"/>
	        <stop busStop="419" duration="7.00"/>
	        <stop busStop="289" duration="7.00"/>
	        <stop busStop="198" duration="7.00"/>
	        <stop busStop="316" duration="7.00"/>
	        <stop busStop="253" duration="7.00"/>
	</flow>
	<flow id="N19_frequency1" type="bus" begin="900" end="1800" period="900">
		<route edges="29238015 29238044 80369244 80369263 29238181 29238182 29238183#0 29238184#0 51856492#0 29027839#0 29027839#2 31343367#0 29048562#0 145069303#0 145069303#1 145069303#2 145069303#4 -26973015 24983010#0 24983010#1 161678033#0 51857519#0 161678034#0 161678034#1 161678034#2 161678034#2.30 161678034#2.46 24970784#0 24977473#0 54154922#0 54154922#1 26071515#0 26071515#1 4324820 26471940#0 -164051438#2 -164051438#1 -164051438#0 -164051438#0.46 -164051438#0.62 -26471933 140834262#0 201953161#0 201953161#7 -115881043#10 -115881043#8 -115881043#7 -115881043#6 -115881043#5 -115881043#4 -115881043#2 -115881043#0 201953160#0 201953160#3 542630099 354967545#0.45 354967545#1 141058765#0 141058765#1 141058765#2 141058765#2.33 31624236#0 172700927#0 -48742425#2 -48742425#1 -48742425#0 23184252#0 23184252#1 201926265#0 201926265#1 201926265#2 201926265#3 201926265#4 201926265#5 -20314044#2 -20314044#1 -20314044#0 -57827563#3 -57827563#2 -57827563#1 -57827563#0 20266195#0 20266195#2 20266195#4 -439871826 -22486112#6 -22486112#5 -22486112#4 -22486112#3 -22486112#2 -22486112#1 -390842191#1 -201286890#12 -201286890#10 -201286890#9 -201286890#8 -201286890#7 -201286890#6 -201286890#5 23206120 203976003#11" />
	        <stop busStop="331" duration="7.00"/>
	        <stop busStop="200" duration="7.00"/>
	        <stop busStop="269" duration="7.00"/>
	        <stop busStop="94" duration="7.00"/>
	        <stop busStop="223" duration="7.00"/>
	        <stop busStop="390" duration="7.00"/>
	        <stop busStop="137" duration="7.00"/>
	        <stop busStop="139" duration="7.00"/>
	        <stop busStop="105" duration="7.00"/>
	        <stop busStop="196" duration="7.00"/>
	        <stop busStop="99" duration="7.00"/>
	        <stop busStop="141" duration="7.00"/>
	        <stop busStop="325" duration="7.00"/>
	</flow>
	<flow id="N16_frequency1" type="bus" begin="1200" end="4800" period="3600">
		<route edges="379514689 80369263 29238181 29238182 29238183#0 29238184#0 51856492#0 29027839#0 29027839#2 31343367#0 29048562#0 145069303#0 145069303#1 145069303#2 145069303#4 -26973015 24983010#0 24983010#1 161678033#0 -32350852#4 -32350852#3 -32350852#1 145069366#1 145069366#3 24982688#0 24982688#0.12 24982688#2 24982688#3 145069294#0 32201042 32201044#0 32201044#1 32201044#2 233673423 28418763 -379723624#1 -379723624#0 -32923867#4 -32923867#3 -32923867#2 -32923867#1 -32923867#0 130996520 130996520.58 172519650 306396705 174321447 58295043 32923863#2 266607804#0 266607804#1 266607804#2 266607803#0 266607803#1 266607803#2 266607792#0 266607792#5 39444316 -247392223#3 -201078448#1 379721536#0 201078447#0 201078447#3 39444748#0 39444748#1 39444748#4 39444748#5 39444748#8 201243230#0 201243230#1 233673410#0 233673410#1 233673410#5 233673410#6 266607801#0 266607801#1 266607802#0 266607802#1 266607795#0 266607795#1 266607795#6 266607800#0 -200908888#2 -200908888#0 -201243223 -21966650#2 -21966650#0 54606432#7 54606432#8 54606432#9 233673422#7 233673422#9" />
	        <stop busStop="295" duration="7.00"/>
	        <stop busStop="200" duration="7.00"/>
	        <stop busStop="13" duration="7.00"/>
	        <stop busStop="328" duration="7.00"/>
	        <stop busStop="421" duration="7.00"/>
	        <stop busStop="134" duration="7.00"/>
	        <stop busStop="205" duration="7.00"/>
	        <stop busStop="361" duration="7.00"/>
	        <stop busStop="419" duration="7.00"/>
	        <stop busStop="289" duration="7.00"/>
	        <stop busStop="198" duration="7.00"/>
	        <stop busStop="316" duration="7.00"/>
	        <stop busStop="171" duration="7.00"/>
	        <stop busStop="352" duration="7.00"/>
	        <stop busStop="253" duration="7.00"/>
	</flow>
	<flow id="N16R_frequency1" type="bus" begin="3240" end="6840" period="3600">
		<route edges="-233673422#10 -233673422#8 -54606432#11 -54606432#8 -54606432#7 21966650#0 21966650#1 201243223 200908887 200908888#1 -266607800#1 -266607795#6 -266607795#5 -266607795#0 -266607802#1 -266607802#0 -266607801#1 -266607801#0 -233673410#7 -233673410#5 -233673410#4 -233673410#0 -201243230#1 -201243230#0 -39444748#9 -39444748#7 -39444748#4 -39444748#3 -39444748#0 -201078447#4 -201078447#2 379721535 201078448#0 201078448#2 -200949176#1 -200949176#0 -266607792#7 -266607792#4 -266607803#2 -266607803#1 -266607803#0 -266607804#2 -266607804#1 -266607804#0 -32923863#4 -32923863#1 151167768#0 151167768#1 172515814#0 172515814#1 305390324 -39649533 32923867#1 32923867#1.96 32923867#2 32923867#3 32923867#4 379723624#0 379723624#1 130996518#0 -233673423 -32201044#2 -32201044#1 -32201044#0 -32201042 -145069294#1 -24982688#4 -24982688#2 -24982688#1 -24982688#1.52 -145069366#3 -145069366#2 32350852#0 32350852#3 32350852#4 -161678033#0 -24983010#2 -24983010#0 26973015 -145069303#4 -145069303#3 -145069303#1 -145069303#0 -32009683#1 -31343367#1 -29027839#2 -29027839#1 -51856492#2 -29238184#1 -145069300#1 -145069300#1.112 51856495#0 29238013 51856499 51856498 379514689" />
	        <stop busStop="373" duration="7.00"/>
	        <stop busStop="214" duration="7.00"/>
	        <stop busStop="63" duration="7.00"/>
	        <stop busStop="93" duration="7.00"/>
	        <stop busStop="398" duration="7.00"/>
	        <stop busStop="418" duration="7.00"/>
	        <stop busStop="58" duration="7.00"/>
	        <stop busStop="62" duration="7.00"/>
	        <stop busStop="11" duration="7.00"/>
	        <stop busStop="77" duration="7.00"/>
	        <stop busStop="72" duration="7.00"/>
	        <stop busStop="323" duration="7.00"/>
	        <stop busStop="191" duration="7.00"/>
	        <stop busStop="295" duration="7.00"/>
	</flow>
	<flow id="11R_frequency1" type="bus" begin="17640" end="69840" period="900">
    		<route edges="-54606422#4 -54606422#1 -54606422#0 -54606427#1 -54606427#0 -54606430 -61738382#2 32545203 306431422 26346717#0 26346717#1 26346717#2 26346717#3 26346717#4 155847374#1 391029003 391208987#0 391029004#0 391029004#1 391029004#2 60100821#0 60100821#1 60100821#4 -39444748#9 -39444748#7 -39444748#4 -39444748#3 -39444748#0 -201078447#4 -201078447#2 379721535 201078448#0 201078448#2 -200949176#1 -200949176#0 -266607792#7 -266607792#4 -266607803#2 -266607803#1 -266607803#0 -266607804#2 -266607804#1 -266607804#0 -32923863#4 -32923863#1 151167768#0 151167768#1 172515814#0 172515814#1 305390324 -39649533 32923867#1 32923867#1.96 32923867#2 32923867#3 32923867#4 379723624#0 379723624#1 130996518#0 -233673423 -32201044#2 -32201044#1 -32201044#0 -32201042 -145069294#1 32201172 62798408 145069357 103671248 gneE176 145069272 -29119898 -32924041#3 -108310252 -108310253 -29458096 -51856495#2 -29458097#2 -32978638#3 -32978638#0 32021112#0 168702040#1 168702040#2 168702040#3 168702040#4 -315358253#3 -315358253#2 -315358253#1 -315358253#0 -315358248#1 -315358245 -202092675.36 -4942389#1 -4942389#0 -136436466 -315358251#1 -315358251#0 -315358242#2 -315358242#1 -315358242#0 -129379925 -129379918#1 -315358252#1 -129379922 -315358246 -129379920#1 -129379920#0 -129379921#1 -129379921#0 -315358250#1 -315358250#0 -379897806 -164078530 -315358244 -129379923 -315358243 -164078531#2 -164078531#1 -164078531#0 -164078531#0.84" />
	        <stop busStop="374" duration="7.00"/>
        	<stop busStop="369" duration="7.00"/>
        	<stop busStop="251" duration="7.00"/>
        	<stop busStop="339" duration="7.00"/>
        	<stop busStop="148" duration="7.00"/>
        	<stop busStop="149" duration="7.00"/>
        	<stop busStop="398" duration="7.00"/>
        	<stop busStop="418" duration="7.00"/>
        	<stop busStop="58" duration="7.00"/>
        	<stop busStop="62" duration="7.00"/>
        	<stop busStop="11" duration="7.00"/>
        	<stop busStop="77" duration="7.00"/>
        	<stop busStop="329" duration="7.00"/>
        	<stop busStop="420" duration="7.00"/>
        	<stop busStop="43" duration="7.00"/>
        	<stop busStop="23" duration="7.00"/>
        	<stop busStop="24" duration="7.00"/>
        	<stop busStop="25" duration="7.00"/>
        	<stop busStop="290" duration="7.00"/>
        	<stop busStop="22" duration="7.00"/>
        	<stop busStop="178" duration="7.00"/>
	</flow>
	<flow id="S6R" type="bus" begin="17940" end="48540" period="30600">
    		<route edges="-54606422#4 -54606422#1 -54606422#0 -54606427#1 -54606427#0 -54606430 -61738382#2 32545203 306431422 26346717#0 26346717#1 26346717#2 26346717#3 26346717#4 155847374#1 391029003 391208987#0 391029004#0 391029004#1 391029004#2 60100821#0 60100821#1 60100821#4 -39444748#9 -39444748#7 -39444748#4 -39444748#3 -39444748#0 -201078447#4 -201078447#2 379721535 201078448#0 201078448#2 -200949176#1 -200949176#0 -266607792#7 -266607792#4 -266607803#2 -266607803#1 -266607803#0 -266607804#2 -266607804#1 -266607804#0 -32923863#4 -32923863#1 151167768#0 151167768#1 172515814#0 172515814#1 305390324 -39649533 32923867#1 32923867#1.96 32923867#2 32923867#3 32923867#4 379723624#0 379723624#1 130996518#0 -233673423 -32201044#2 -32201044#1 -32201044#0 -32201042 -145069294#1 -24982688#4 -24982688#2 -24982688#1 -24982688#1.52 -145069366#3 -145069366#2 32350852#0 32350852#3 32350852#4 51857519#0 161678034#0 161678034#1 161678034#2 161678034#2.30 161678034#2.46 24970784#0 164051410#0 164051410#1 32199969#0 32199969#2 32199969#5 32199989#0 32199989#1 323248156#0 266567301#1 64464420 24989982#0 -165520703#4 -24989986 -203127050 -165414587#0 203127020#0 200741048 248012814 29119850 29119850.70 30399662#0 30399662#1 54169280#0 54169280#1 54169280#2 54169280#3 54169280#4 54169280#6 386687232#0 -315358251#1 -315358251#0 -315358242#2 -315358242#1 -315358242#0 -129379925 -129379918#1 -315358252#1 -129379922 -315358246 -129379920#1 -129379920#0 -129379921#1 -129379921#0 -315358250#1 -315358250#0 -379897806 -164078530 -315358244 -129379923 -315358243 -164078531#2 -164078531#1 -164078531#0 -164078531#0.84 -156788416#1 10425743 220012723" />
	        <stop busStop="369" duration="7.00"/>
	        <stop busStop="251" duration="7.00"/>
	        <stop busStop="149" duration="7.00"/>
	        <stop busStop="418" duration="7.00"/>
	        <stop busStop="58" duration="7.00"/>
	        <stop busStop="62" duration="7.00"/>
	        <stop busStop="11" duration="7.00"/>
	        <stop busStop="72" duration="7.00"/>
	        <stop busStop="323" duration="7.00"/>
	        <stop busStop="122" duration="7.00"/>
	        <stop busStop="107" duration="7.00"/>
	        <stop busStop="226" duration="7.00"/>
	        <stop busStop="24" duration="7.00"/>
	        <stop busStop="25" duration="7.00"/>
	        <stop busStop="290" duration="7.00"/>
	        <stop busStop="22" duration="7.00"/>
	        <stop busStop="322" duration="7.00"/>
	</flow>
	<flow id="S1R" type="bus" begin="18180" end="48440" period="30300">
		<route edges="-233673422#10 -233673422#8 -233673422#6 -233673422#4 -233673422#3 -233673422#1 233673418 51872703 28124854#0 28124854#1 51872706 51872706.54 32881184 51872702 201286890#0 201286890#1 201286890#2 201286890#3 201286890#4 201286890#6 201286890#7 201286890#8 201286890#9 201286890#10 201286890#11 390842191#0 22486112#0 22486112#2 22486112#3 22486112#4 22486112#5 22486112#6 439871826 -20266195#4 -20266195#3 -20266195#1 57827563#0 57827563#1 57827563#2 57827563#3 20314044#0 20314044#1 20314044#2 -201926265#6 -201926265#4 -201926265#3 -201926265#2 -201926265#1 -201926265#0 -23184252#1 -23184252#0 48742425#0 48742425#1 48742425#2 32881076#0 37282369 354967544#0 354967544#1 354967544#2 4268816#0 4268816#1 -201953160#4 -201953160#1 -140834255#1 -140834262#1 -26471939#1 -26471938 26471932#0 164051398 203971379#0 203971379#1 -54154922#1 -54154922#0 -42745461#1 -42745461#0 -42745460 -28132014#2 -28132014#0 -116765457#1 -116765457#0 -137463475#1 137463477#0 25902677#0 137463478#0 137463478#1 137463478#2 137463478#3 29238188#0 29238188#1 29238188#3 152077572#0 152077572#2 152077572#2.79 54858974 4942408 54858973#0 54858973#0.62 54858973#1 54858973#2 29119849#0 29119849#1 29119850 29119850.70 30399662#0 30399662#1 54169280#0 54169280#1 54169280#2 54169280#3 54169280#4 54169280#6 386687232#0 -315358251#1 -315358251#0 -315358242#2 -315358242#1 -315358242#0 -129379925 -129379918#1 -315358252#1 -129379922 -315358246 -129379920#1 -129379920#0 -129379921#1 -129379921#0 -315358250#1 -315358250#0 -379897806 -164078530 -315358244 -129379923 -315358243 -164078531#2 -164078531#1 -164078531#0 -164078531#0.84 -156788416#1 10425743 220012723" />
	        <stop busStop="92" duration="7.00"/>
	        <stop busStop="192" duration="7.00"/>
	        <stop busStop="193" duration="7.00"/>
	        <stop busStop="195" duration="7.00"/>
	        <stop busStop="108" duration="7.00"/>
	        <stop busStop="197" duration="7.00"/>
	        <stop busStop="126" duration="7.00"/>
	        <stop busStop="95" duration="7.00"/>
	        <stop busStop="240" duration="7.00"/>
	        <stop busStop="224" duration="7.00"/>
	        <stop busStop="282" duration="7.00"/>
	        <stop busStop="235" duration="7.00"/>
	        <stop busStop="226" duration="7.00"/>
	        <stop busStop="24" duration="7.00"/>
	        <stop busStop="25" duration="7.00"/>
	        <stop busStop="290" duration="7.00"/>
	        <stop busStop="22" duration="7.00"/>
	        <stop busStop="322" duration="7.00"/>
	</flow>
	<flow id="9221_frequency1" type="bus" begin="18300" end="23400" period="5100">
		<route edges="-51856493#1 -29238020#0 51856492#0 29027839#0 29027839#2 31343367#0 29048562#0 11014139#0 24991573 24991571 64464405 266567306 64464408 64464384#1 32009827 266567303 266567294#0 25797090#1 201444272#0 201444272#1 201444272#3 29027727#0 29027727#4 29027727#6 29027727#7 29027727#9 152077572#0 152077572#2 152077572#2.79 54858974 542727960 30399316#0 30399316#0.52 30399316#2 51745097#0 51745097#1 144655546#0 150746347#0 150746347#1 150746347#2 150746347#3 150746347#4 144655547#0 144655547#1 144655547#2 379723623#0 379723623#2 201828014#1 201828014#2 201828014#3 201828014#4 127076894#0 127076894#2 41522169#0 41522169#1" />
	        <stop busStop="382" duration="7.00"/>
	        <stop busStop="307" duration="7.00"/>
	        <stop busStop="314" duration="7.00"/>
	        <stop busStop="106" duration="7.00"/>
	        <stop busStop="229" duration="7.00"/>
	        <stop busStop="113" duration="7.00"/>
	</flow>
	<flow id="15R_frequency1" type="bus" begin="18420" end="23880" period="1800">
		<route edges="gneE179 25508272#0 25508272#1 614568192 126909938 27267723 136618613#0 136618613#1 542769276#0 32061997#0 32061997#1 32061997#1.157 627181818#0 627181818#1 156788416#1 164078531#0 164078531#1 164078531#2 315358247#0 129379923 315358244 379897807 137685155#0 129379921#0 129379921#1 129379920#0 129379920#1 315358246 129379922 315358252#0 129379918#0 129379925 315358242#0 315358242#1 315358242#2 315358242#3 315358251#1 136436466 386687235 42745545#0 42745545#2 42745545#3 42745545#4 42745545#5 42745545#5.128 42745545#6 28639688#0 28639688#1 28639688#3 24890429#0 24890429#1 24890429#2 -203127020#4 391606922 165414587#1 165520706 380273341 140684001 -380273343 -266565302 -24537982#4 -24537982#3 -24537982#2 -24537982#1 -31343367#1 -29027839#2 -29027839#1 -51856492#2 -29238184#1 -29238183#0 -29238182 -29238181 -80369263 -80369244 -29238016" />
        	<stop busStop="318" duration="7.00"/>
        	<stop busStop="124" duration="7.00"/>
        	<stop busStop="370" duration="7.00"/>
        	<stop busStop="156" duration="7.00"/>
        	<stop busStop="75" duration="7.00"/>
        	<stop busStop="225" duration="7.00"/>
        	<stop busStop="210" duration="7.00"/>
        	<stop busStop="219" duration="7.00"/>
        	<stop busStop="227" duration="7.00"/>
        	<stop busStop="356" duration="7.00"/>
        	<stop busStop="85" duration="7.00"/>
        	<stop busStop="52" duration="7.00"/>
	</flow>
	<flow id="S5" type="bus" begin="18420" end="27420" period="1800">
    		<route edges="-146973236#6 -146973236#5 -146973236#4 -146973236#1 -146973236#0 -54154969#2 -40059576#1 -40059576#0 -202070435#14 -202070435#12 -202070435#11 -202070435#8 -202070435#6.32 -202070435#6.65 -202070435#4 -202070435#1 -202070435#0 -201789798#1 -201789798#0 -201789799#2 -201789799#1 -201789799#0 201789797#0 201789797#1 gneE143 149045269#0 149045269#2 149045269#3 201789794#0 201789794#3 308849647 266507550 30320943 378466167 266507548 257907861 151167740 266507555 266507554 266507557#0 266507557#1 172368742 172368742.57 172368742.75 172368742.185 542650762 391208991 25626614#0 25626614#1 25626614#2 391029007 391029008#0 391029008#1 391029008#1.77 391029008#2 4942575#0 4942575#1 4942575#2 31342349#0 31342349#3 4942408 54858973#0 54858973#0.62 54858973#1 54858973#2 29119849#0 29119849#1 29119850 29119850.70 30399662#0 30399662#1 54169280#0 54169280#1 54169280#2 54169280#3 54169280#4 54169280#6 386687232#0 -315358251#1 -315358251#0 -315358242#2 -315358242#1 -315358242#0 -129379925 -129379918#1 -315358252#1 -129379922 -315358246 -129379920#1 -129379920#0 -129379921#1 -129379921#0 -315358250#1 -315358250#0" />
	        <stop busStop="187" duration="7.00"/>
	        <stop busStop="188" duration="7.00"/>
	        <stop busStop="189" duration="7.00"/>
	        <stop busStop="379" duration="7.00"/>
	        <stop busStop="109" duration="7.00"/>
	        <stop busStop="130" duration="7.00"/>
	        <stop busStop="257" duration="7.00"/>
	        <stop busStop="273" duration="7.00"/>
	        <stop busStop="270" duration="7.00"/>
	        <stop busStop="267" duration="7.00"/>
	        <stop busStop="315" duration="7.00"/>
	        <stop busStop="226" duration="7.00"/>
	        <stop busStop="24" duration="7.00"/>
	        <stop busStop="25" duration="7.00"/>
	        <stop busStop="290" duration="7.00"/>
	        <stop busStop="22" duration="7.00"/>
	</flow>
	<flow id="30_frequency1" type="bus" begin="18540" end="24840" period="1800">
		<route edges="-32937030 -390832775#1 -147014252#6 -147014252#4 -147014252#3 -147014252#2 -147014252#1 -147014252#0 -22603941#2 -22603941#1 -22603941#0 -201400763#3 -201400763#1 -201400763#0 -30315927 -201400751#0 -41494741#1 -41494741#0 305495779#0 305495779#1 21224502 141058755#0 141058755#1 141058755#2 390842192#0 390842192#2 390842192#4 32530108#0 32530108#2 32530108#3 205182378#0 205182378#1 205182378#3 205182378#4 205182378#5 205182378#6 205182378#7 205182378#8 205182378#10 205182378#12 205182378#13 205182378#14 205182378#15 -37282688#5 -37282688#4 -37282688#3 -37282688#1 29458100#0 -201278214#1 -29458645 -29458645.13 -29458645.28 131118468#0 131118468#0.16 131118468#1 131118468#3 131118468#4 305390335 172515813 201278215 305390324 -39649533 32923867#1 32923867#1.96 32923867#2 32923867#3 32923867#4 379723624#0 379723624#1 130996518#0 -233673423 -32201044#2 -32201044#1 -32201044#0 -32201042 -145069294#1 -24982688#4 -24982688#2 -24982688#1 -24982688#1.52 -145069366#3 -145069366#2 -28418764#2 -28418764#1 -28418764#0.88 -28418764#0.109 -542617943 -389831364 10425610#0 156923526#0 156923526#3 390282481 51856496#0 51856496#1 51856496#2 51856496#3 51856496#4 51856496#5 51856496#6 51856496#8 204388144#0 204388144#1 18909061#0 389831363#0 32061928#2 32061928#4 32061928#5 389840420#3 29458097#0 51856495#0 29238013 51856499 51856498 51856497 379514685 29238181 29238182 29238183#0 29238184#0 51856492#0 29027839#0 29027839#2 31343367#0 24537982#0 24537982#2 24537982#3 24537982#4 266565302 380273343 29238186 140684000#0 140684000#1 391606922 165414587#1 165520706 380273341 140684001 -233673425#1 -233673425#0 -266567307#1 -30404124 30417892 266567308#0 64464384#1 32009827 266567303 266567294#0 31342064#1 31342064#1.83 25902677#0 137463478#0 137463478#1 137463478#2 137463478#3 -274823622#10 -274823622#7 -274823622#3 -274823622#2 -274823622#1 -274823622#0 -274823622#0.68 -31342351#1 23009600#0 23009600#2 153220338#0 153220338#2 51745097#0 51745097#1 144655546#0 28763451#0 29459180#0 29459180#1 32140444#1 32140444#4 25377287#0 25377287#1 25377287#2 25377287#5 25377287#6 25377287#7 25377287#8 32203888#0 32203888#1 32203888#3 29459182#0 144655547#0 144655547#1 144655547#2 379723623#0 379723623#2 201828014#1 201828014#2 201828014#3 201828014#4 127076894#0 127076894#2 41522169#0 41522169#1"/>
        	<stop busStop="186" duration="7.00"/>
        	<stop busStop="132" duration="7.00"/>
        	<stop busStop="133" duration="7.00"/>
        	<stop busStop="236" duration="7.00"/>
        	<stop busStop="194" duration="7.00"/>
        	<stop busStop="237" duration="7.00"/>
        	<stop busStop="238" duration="7.00"/>
        	<stop busStop="138" duration="7.00"/>
        	<stop busStop="136" duration="7.00"/>
        	<stop busStop="416" duration="7.00"/>
        	<stop busStop="77" duration="7.00"/>
        	<stop busStop="72" duration="7.00"/>
        	<stop busStop="215" duration="7.00"/>
       		<stop busStop="228" duration="7.00"/>
        	<stop busStop="294" duration="7.00"/>
        	<stop busStop="408" duration="7.00"/>
        	<stop busStop="301" duration="7.00"/>
        	<stop busStop="207" duration="7.00"/>
       		<stop busStop="356" duration="7.00"/>
        	<stop busStop="235" duration="7.00"/>
        	<stop busStop="56" duration="7.00"/>
        	<stop busStop="233" duration="7.00"/>
        	<stop busStop="231" duration="7.00"/>
        	<stop busStop="305" duration="7.00"/>
        	<stop busStop="320" duration="7.00"/>
        	<stop busStop="232" duration="7.00"/>
        	<stop busStop="230" duration="7.00"/>
        	<stop busStop="229" duration="7.00"/>
        	<stop busStop="113" duration="7.00"/>
	</flow>
	<flow id="S2R" type="bus" begin="18780" end="49020" period="30240">
		<route edges="-26288509#11 -26288509#8 -26288509#7 -26288509#6 -26288509#4 -26288509#3 -26288509#2 -26288509#1 23291836 113566916#0 113566916#1 113566916#7 113566916#8 113566916#11 315512843#0 51244815#0 51244815#2 51244815#3 -23184143#7 -23184143#6 -23184143#5 -23184143#4 -23184143#3 -23184143#2 -23184143#1 -23184143#0 -23184136#8 -23184136#6 -23184136#5 -23184136#4 -23184136#0 51244813#0 51244813#1 51244813#4 51244813#6 51244813#7 51244813#8 40623117#0 391208988 33814393#0 33814393#1 33814393#2 174609517#0 38508400#1 172515811#0 172517198#0 305390324 -39649533 32923867#1 32923867#1.96 32923867#2 32923867#3 32923867#4 379723624#0 379723624#1 130996518#0 -233673423 -32201044#2 -32201044#1 -32201044#0 -32201042 -145069294#1 32201172 62798408 145069357 103671248 gneE176 145069272 -29119898 -32924041#3 -108310252 -108310253 -29458096 -51856495#2 -29458097#2 -32978638#3 -32978638#0 32021112#0 168702040#1 168702040#2 168702040#3 168702040#4 -315358253#3 -315358253#2 -315358253#1 -315358253#0 -315358248#1 -315358245 -202092675.36 -4942389#1 -4942389#0 -136436466 -315358251#1 -315358251#0 -315358242#2 -315358242#1 -315358242#0 -129379925 -129379918#1 -315358252#1 -129379922 -315358246 -129379920#1 -129379920#0 -129379921#1 -129379921#0 -315358250#1 -315358250#0 -379897806 -164078530 -315358244 -129379923 -315358243 -164078531#2 -164078531#1 -164078531#0 -164078531#0.84 -156788416#1 10425743 220012723" />
	        <stop busStop="65" duration="7.00"/>
	        <stop busStop="150" duration="7.00"/>
	        <stop busStop="145" duration="7.00"/>
	        <stop busStop="96" duration="7.00"/>
	        <stop busStop="97" duration="7.00"/>
	        <stop busStop="98" duration="7.00"/>
	        <stop busStop="296" duration="7.00"/>
	        <stop busStop="364" duration="7.00"/>
	        <stop busStop="135" duration="7.00"/>
	        <stop busStop="329" duration="7.00"/>
	        <stop busStop="43" duration="7.00"/>
	        <stop busStop="24" duration="7.00"/>
	        <stop busStop="25" duration="7.00"/>
	        <stop busStop="290" duration="7.00"/>
	        <stop busStop="322" duration="7.00"/>
	</flow>
	<flow id="S4_frequency1" type="bus" begin="18900" end="27900" period="1800">
		<route edges="32061997#1 32061997#1.157 627181818#0 627181818#1 10425743 220012723 201894096#4 201894096#7 -320733909#2 -320733909#0 -320733910#1 -23622271#6 -23622271#5 -23622271#1 203127018 137672872 137672874#0 320733913 77414800#0 gneE4 148351766 220013328 139429268 320733893 125002615#0 125002615#1 125002604#0 320733905#0 148527678#0 148527678#1 148527688#1 320733892#0 320733892#2 320733892#3 82628963#0 82628963#3 82628963#4 307562643#1 307562643#2 266561178#0 393420116#0 393420116#3 393420116#5 24754837#0 24754837#1 24754837#2 24754837#3 24754837#4 24754837#5 -24754881#7 -24754881#4 -24754881#1 -164051420#2 -164051420#0 201201947 378946911 27998319 -25341141#3 -25341141#0 -23622107#8 -23622107#7 -23622107#6 -23622107#3 -23622107#2 379718294 164051417#0 107431496#0 107431496#2 107431496#4" />
	        <stop busStop="124" duration="7.00"/>
	        <stop busStop="19" duration="7.00"/>
	        <stop busStop="18" duration="7.00"/>
	        <stop busStop="377" duration="7.00"/>
	        <stop busStop="311" duration="7.00"/>
	        <stop busStop="206" duration="7.00"/>
	        <stop busStop="340" duration="7.00"/>
	        <stop busStop="341" duration="7.00"/>
	        <stop busStop="321" duration="7.00"/>
	        <stop busStop="41" duration="7.00"/>
	        <stop busStop="87" duration="7.00"/>
	</flow>
	<flow id="10_frequency1" type="bus" begin="19140" end="70440" period="900">
		<route edges="28319300#3 137132993#0 306431419 137132994#0 137132994#1 137132994#2 201143840 201234440 -379510292 -28319300#2 -201201945#8 -201201945#7 -201201945#6 -201201945#2 -201201945#1 -201201945#0 -201201945#0.78 -174800513 -201238718#2 -201238718#1 -201238718#0 -315392062#4 -24693977#1 -24693977#0 -32999434#1 32999110#0 32999110#1 402600768#0 402600768#1 51857517#0 51857517#0.33 51857517#1 51857518#1 32978638#0 32978638#1 29458097#0 51856495#0 29458096 108239938 104236369 108310250 29119898 -145069272 gneE154 -103671248 -145069357 -62798408 -32201172 145069294#0 32201042 32201044#0 32201044#1 32201044#2 233673423 28418763 -379723624#1 -379723624#0 -32923867#4 -32923867#3 -32923867#2 -32923867#1 -32923867#0 130996520 130996520.58 172519650 306396705 174321447 58295043 32923863#2 266607804#0 266607804#1 266607804#2 266607803#0 266607803#1 266607803#2 266607792#0 266607792#5 39444316 -247392223#3 -201078448#1 379721536#0 -39444747 -10597454#2 -10597454#1 -207091116#1 -71809618#4 -71809618#3 -71809618#2 -28577490#3 -28577490#2 -28577490#1 -28577490#0 -306431425#3 -379521569#6 -379521569#1 -379521569#0 -201950252#1 -315512845#7 -315512845#5 -315512845#3 -315512845#2 -315512845#1 -25699307#1 -51180454#5 -51180454#2 -51180454#1 -51180454#0 26346716#0 201950260 306431423#0 306431423#1 61738383 61738382#0 54606430 54606427#0 54606427#1 54606422#0 54606422#1 54606422#3" />
        	<stop busStop="337" duration="7.00"/>
	        <stop busStop="55" duration="7.00"/>
        	<stop busStop="155" duration="7.00"/>
        	<stop busStop="157" duration="7.00"/>
        	<stop busStop="154" duration="7.00"/>
        	<stop busStop="84" duration="7.00"/>
        	<stop busStop="319" duration="7.00"/>
        	<stop busStop="360" duration="7.00"/>
        	<stop busStop="367" duration="7.00"/>
        	<stop busStop="421" duration="7.00"/>
        	<stop busStop="134" duration="7.00"/>
        	<stop busStop="205" duration="7.00"/>
        	<stop busStop="361" duration="7.00"/>
        	<stop busStop="419" duration="7.00"/>
        	<stop busStop="365" duration="7.00"/>
        	<stop busStop="33" duration="7.00"/>
        	<stop busStop="411" duration="7.00"/>
        	<stop busStop="66" duration="7.00"/>
        	<stop busStop="389" duration="7.00"/>
        	<stop busStop="326" duration="7.00"/>
        	<stop busStop="204" duration="7.00"/>
	</flow>
	<flow id="50R_frequency1" type="bus" begin="19260" end="19980" period="720">