<?xml version="1.0" encoding="UTF-8"?>

<!-- generated on Tue Apr  6 17:11:02 2021 by Eclipse SUMO duarouter Version 1.8.0
<configuration xmlns:xsi="http://www.w3.org/2001/XMLSchema-instance" xsi:noNamespaceSchemaLocation="http://sumo.dlr.de/xsd/duarouterConfiguration.xsd">

    <input>
        <net-file value="/home/lobo/intas-development/InTASped.net.xml"/>
        <additional-files value="/home/lobo/intas-development/BusStations1.add.xml"/>
        <route-files value="/mnt/c/Users/lobo/Desktop/InTAS/01-Development/01-Sidewalks/03-Map/routes/pedestrian1.rou.trip.xml"/>
    </input>

    <output>
        <output-file value="/mnt/c/Users/lobo/Desktop/InTAS/01-Development/01-Sidewalks/03-Map/routes/ped1.rou.xml"/>
        <alternatives-output value="/mnt/c/Users/lobo/Desktop/InTAS/01-Development/01-Sidewalks/03-Map/routes/ped1.rou.alt.xml"/>
    </output>

    <processing>
        <persontrip.transfer.car-walk value="alljunctions"/>
    </processing>

    <time>
        <begin value="0"/>
        <end value="18000"/>
    </time>

    <report>
        <no-warnings value="true"/>
        <ignore-errors value="true"/>
        <no-step-log value="true"/>
    </report>

</configuration>
-->

<routes xmlns:xsi="http://www.w3.org/2001/XMLSchema-instance" xsi:noNamespaceSchemaLocation="http://sumo.dlr.de/xsd/routes_file.xsd">
    <person id="0" depart="0.00">
        <walk edges="-26416599 -51244813#7 -51244813#8 40623117#0 -391208988 -33814393#0 -33814393#1 -33814393#3 -174609517#3 gneE19 33779209#1 151167768#1 200946853 54033673#0 54033673#0.28 54033673#2 131118468#1 131118468#0.16 131118468#0 -29458645.28 -29458645.13 -29458645 201278214#0 29458100#0 -37282688#1 -37282688#3 -37282688#4 37282688#5 -205182378#15 205182378#14 205182378#13 -205182378#12 -205182378#11 205182378#8 -205182378#7 205182378#6 -205182378#5 205182378#4 -205182378#3 -205182378#2 205182378#0"/>
    </person>
    <person id="1" depart="720.00">
        <walk edges="-28269293 28269269#1 -28269269#0 -24061326#0 -391208993#5 -391208993#4 -391208993#3 -391208993#2 -391208993#1 391208993#0 -138265826#11 -138265826#12 -28577490#0 -28577490#1 -28577490#2 -174597970#1 -174597970#2 -174597970#3 -174597970#6 174597970#7 -201933879#1 -201933879#3 -201933879#6 201933877#0 -26339462#3 -391208988 -33814393#0 -33814393#1 -33814393#3 -174609517#3 -38508400#1 172517196 306086241 61940356 172515808 -24495188 -61940355 201969576#0 -201969576#1 -201969576#4 -201969576#5 -201969576#6 201969576#7 -29497467 124812856#0 124812856#1 201956821#0 201956821#1.68 124812857#0 104010475#0 104012170 27920078#1 27920078#0 -139230366 233675413#7 233675413#4 -233675413#3 -233675413#2 -233675413#1 -233675413#0 -136728347#4 -201963533#5 -201963533#4 24634517#1 -120125554 -24634516#2 -24634516#1 -24634516#0 -10427692#5 -10427692#6 10427692#7 10427692#7.50 -10427692#7"/>
    </person>
    <person id="2" depart="1440.00">
        <walk edges="90587322#0 -25192758 25188982#0 164051398 201956818#5 201956818#2 33279254#1 556434727 542630099 354967545#0.45 354967545#1 141058765#0 141058765#1 141058765#2 141058765#2.33 31624236#0 29458647#0 201278216#0 201278214#0 -29458645 -29458645.13 -29458645.28 131118468#0 131118468#0.16 131118468#1 54033673#2 54033673#0.28 54033673#0 200946853 151167768#1 33779209#1 gneE19 -174609517#3 -33814393#3 -33814393#1 -33814393#0 -391208988 40623117#0 -51244813#8 -51244813#7 -51244813#6 -51244813#5 -51244813#5.55 51244813#1 -51244813#0 26341775#7 26339179#8"/>
    </person>
    <person id="3" depart="2160.00">
        <walk edges="-320733909#2 -164078536 315358254#0 315358257#0.43 -315358257#0.26 201089420#0 -201201945#8 -201201945#7 201201945#3 -201201945#2 -201201945#1 -201201945#0 -201201945#0.78 -174800513 201201950#0 201201950#1 201201950#2 201201950#3 201201950#4 386687239#0 386687239#1 202092676#0 386687235 42745545#0 42745545#2 42745545#3 42745545#4 42745545#5 42745545#5.128 42745545#6 30399662#1 30399662#0 29119850.70 29119850 248012815#0 248012815#1 30399325 30399322#1.56 54858973#1 54858973#0.62 54858973#0 4942408 -542727960 30399316#0 30399316#0.52 -30399316#2 -51745097#0 51745097#1 144655546#0 28763451#0 -29459180#0 -26134440#0 -26134440#1 39863083#4 39863083#3"/>
    </person>
    <person id="4" depart="2880.00">
        <walk edges="-32274767#0 32274767#0 -26339463#8 -201933879#6 201933877#0 -26339462#3 -391208988 -33814393#0 -33814393#1 -33814393#3 -174609517#3 -38508400#1 172517196 306086241 61940356 172515808 -24495188 -61940355 201969576#0 -201969576#1 -201969576#4 -201969576#5 -151167738#0 -151167738#1 -151167738#2 -23442105#0 -23442105#1 -23442105#2 -23442105#3 -23442105#4 -38305646#0 -38305646#1 -38305646#2 -38305646#4 26729232#0 -26729232#2 26372056"/>
    </person>
    <person id="5" depart="3600.00">
        <walk edges="23291898#2 23291898#1 -23291898#0 -391029003 26356922#5 26356922#2 -26356922#1 379521569#2 -379521569#1 201950252#2 -201950252#1 -51244814#4 -51244814#3 51244814#1 -51244814#0 -23184136#8 -23184136#6 -23184136#5 23184136#1 -201933878#8"/>
    </person>
    <person id="6" depart="4320.00">
        <walk edges="-201201940#4 128361094#0 449057060 148527692#0 148527692#1 -128361102#1 285549250#0 -201963533#0 -201963533#1.145 -201963533#1.120 -201963533#1 -201963533#4 -201963533#5 -136728347#4 -233675413#0 -233675413#1 -233675413#2 -233675413#3 233675413#4 233675413#7 -139230366 27920078#0 27920078#1 104012170 104010475#0 124812857#0 201956821#1.68 201956821#0 124812856#1 124812856#0 -29497467 201969576#7 -201969576#6 -201969576#5 -201969576#4 -201969576#1 201969576#0 -61940355 -24495188 172515808"/>
    </person>
    <person id="7" depart="5040.00">
        <walk edges="266567303 24971737#0 24971737#3 -32199989#1 -32199989#0 -32199969#5 32199969#2 -32199969#1 -164051410#1 24989879 -42745460 -42745461#0 -42745461#1 -54154922#0 -54154922#1 26071515#0 26071515#1 4324820 164051399 201956817 33279254#1 556434727 542630099 354967545#0.45 354967545#1 141058765#0 141058765#1 141058765#2 141058765#2.33 31624236#0 29458647#0 201278216#0 201278214#0 -29458645 -29458645.13 -29458645.28 131118468#0 131118468#0.16 131118468#1 54033673#2 54033673#0.28 54033673#0 200946853 151167768#1 151167768#0 -32923863#1 -32923863#4 -266607804#0 -266607804#1 -266607804#2 -266607803#0 -266607803#1 -266607803#2 -266607792#4 266607792#5 200949176#0 -200949176#1 116765451#0 -116765451#3 -390835794#0 -390835794#2 -266607799 -168249926#0 -168249926#1 71809618#5 25375417#0 25375417#6 25375417#7 -25375417#8 -25375417#9 -25375417#10 -25375417#11"/>
    </person>
    <person id="8" depart="5760.00">
        <walk edges="23622517#0 -23623162 -23622056#4 -23622056#5 -23622056#6 23622056#8 23622056#10 -393420112#0 -390068133#0 -24754854#3 -24754854#2 24754854#0 -24754837#2 24754837#3 24754837#4 -24754837#7 -24754881#7 24754881#2 -24754881#1 -164051420#2 -164051420#0 201201948 201202386#0 -201201936#13 201201935#0 -28111977#0 -28111977#1 28111977#2 -28111977#3 -28111977#4 28111977#5 -28111977#6 -28111977#7 28111977#8 -28111977#9 28111977#10 -653473568#1 -653473569#0 25149001#5 -25149001#4 25149001#3 25149001#1 -25149001#0 -173169611#0 124812856#1 124812856#0 -29497467 201969576#7 -201969576#6 -201969576#5 -201969576#4 -201969576#1 201969576#0 -61940355 -24495188 172515808 61940356 306086241 172515812#0 305390333 172515814#1 172515814#0 151167768#1 151167768#0 -32923863#1 -32923863#4 -266607804#0 -266607804#1 -266607804#2 -266607803#0 -266607803#1 -266607803#2 -266607792#4 266607792#5 200949176#0 -200949176#1 116765451#0 -116765451#3 -390835794#0 -390835794#2 -266607799 -168249926#0 -168249926#1 71809618#5 25375417#0 25375417#6 25375417#7 -25375417#8 -25375417#9 -25375417#10 25543966#3 391029011#3 -391029011#2 391029011#2"/>
    </person>
    <person id="9" depart="6480.00">
        <walk edges="-30482630#1 -30054884#1 -30054884#0 141058755#1 22486120#1 -22486120#0 -22486118#2 22486126#0 -22486126#1 52361552 52361537#1 -52361537#0 55600044#1 -55600044#2 -61671904 51872706.54 51872706 28124854#1 -28124854#0 -51872703 32881185#0 -266607805#1 -266607805#0 201243226#0 -266607800#1 266607795#6 266607795#1 266607795#0 -266607802#1 -266607802#0 -266607801#1 -266607801#0 233673410#6 -233673410#5 -40930495#1"/>
    </person>
    <person id="10" depart="7200.00">
        <walk edges="-201963533#4 -201963533#5 -136728347#4 -233675413#0 -233675413#1 -233675413#2 -233675413#3 233675413#4 233675413#7 -139230366 27920078#0 27920078#1 104012170 104010475#0 124812857#0 201956821#1.68 201956821#0 124812856#1 124812856#0 -29497467 201969576#7 -201969576#6 -201969576#5 -201969576#4 -201969576#1 201969576#0 -61940355 -24495188 172515808 61940356 306086241 172515812#0 305390333 172515814#1 172515814#0 151167768#1 151167768#0 -32923863#1 -32923863#4 -266607804#0 -266607804#1 -266607804#2 -266607803#0 -266607803#1 -266607803#2 -266607792#4 266607792#5 200949176#0 -200949176#1 116765451#0"/>
    </person>
    <person id="11" depart="7920.00">
        <walk edges="-21224504#3 21224504#2 -21224504#1 21224504#0 32530113#0 32530108#0 32530108#2 -32530108#5 -205182378#0 -205182378#2 -205182378#3 205182378#4 -205182378#5 205182378#6 -205182378#7 205182378#8 -205182378#11 -205182378#12 205182378#13 205182378#14 -205182378#15 37282688#5 -37282688#4 -37282688#3 -37282688#1 29458100#0 201278214#0 -29458645 -29458645.13 -29458645.28 131118468#0 131118468#0.16 131118468#1 54033673#2 54033673#0.28 54033673#0 356952270 305390333 172515812#0 306086241 61940356 172515808 -24495188 -61940355 201969576#0 -201969576#1"/>
    </person>
    <person id="12" depart="8640.00">
        <walk edges="37192507#1 37192504 -52918687#2 -37192505#0 37192505#1 202070435#9 -202070435#8 -202070435#6.32 202070435#5 -202070435#4 -202070435#1 -202070435#0 201789798#1 201789798#0 201789799#2 201789799#1 201789799#0 -30482638#13 -30482638#11 30482638#10 -30482638#9 30482638#4 30482638#3 30482638#0 -201926266 90587320.64 90587320 -37480109 -90587323 -10425611#1 -10425611#0 -10425611#0.35 -164051429#1 -164051429#0 161678034#2.46 161678034#2.30 161678034#2 -161678034#1 161678034#0 51857519#0 -32350852#4 -32350852#3 32350852#0 -145069366#2 -145069366#3 -24982688#1.52 -24982688#1 -24982688#2 -24982688#4 145069373#0 145069391 145069286#0 32229741 32229742#1 32229742#3 32229742#4 32229742#5 145069311#0 145069316#0 -145069316#1 145069313#2 -103512667#2 -103512667#1 -103512667#0 gneE3 18909064 -33102476 -36689751#2 201956811#0 124812857#0 -164051413 -653473569#5 -653473569#4 -653473569#2 653473569#1 -653473569#0 -653473568#1 28111977#10 -28111977#9 28111977#8 -28111977#7 -28111977#6 28111977#5 -28111977#4"/>
    </person>
    <person id="13" depart="9360.00">
        <walk edges="23184252#0 48742425#0 48742425#1 48742425#2 32881076#0 31624236#0 141058765#2.33 141058765#2 141058765#1 141058765#0 354967545#1 354967545#0.45 542630099 201953160#3 201953160#0 140834255#0 -140834262#1 -26471933 -164051438#0.62 -164051438#0.46 164051438#0.80"/>
    </person>
    <person id="14" depart="10080.00">
        <walk edges="42487767#0 -201286890#8 -22486121#0 -21224504#3"/>
    </person>
    <person id="15" depart="10800.00">
        <walk edges="-4268967#1 -26471933 -140834262#1 140834255#0 201953160#0 201953160#3 542630099 354967545#0.45 354967545#1 141058765#0 141058765#1 141058765#2 141058765#2.33 31624236#0 29458647#0 201278216#0 201278214#0 -29458645 -29458645.13 -29458645.28 131118468#0 131118468#0.16 131118468#1 54033673#2 54033673#0.28 54033673#0 200946853 151167768#1 151167768#0 -32923863#1 -32923863#4 -266607804#0 -266607804#1 -266607804#2 -266607803#0 -266607803#1 -266607803#2 -266607792#4 266607792#5 200949176#0 -200949176#1 116765451#0 -116765451#3 390835794#0"/>
    </person>
    <person id="16" depart="11520.00">
        <walk edges="30399319 152077572#2.79 152077572#2 152077572#0 29238188#3 -29238188#2 -29238188#0 -137463478#3 -137463478#2 -137463478#1 -137463478#0 25796398#0 137463477#0 -137463475#1 -116765457#0 -116765457#1 -28132014#0 -28132014#2 -42745460 -42745461#0 -42745461#1 -54154922#0 -54154922#1 26071515#0 26071515#1 4324820 164051399 201956817 33279254#1 556434727 542630099 354967545#0.45 354967545#1 141058765#0 141058765#1 141058765#2 141058765#2.33 31624236#0 29458647#0 201278216#0 201278214#0 -29458645 -29458645.13 -29458645.28 131118468#0 131118468#0.16 131118468#1 54033673#2 54033673#0.28 54033673#0 200946853 151167768#1 33779209#1 gneE19 -174609517#3 -33814393#3 -33814393#1 -33814393#0 -391208988 -26339462#3 201933877#0 -201933879#6 -201933879#3 -201933879#1 174597970#7 -174597970#6 -174597970#3 -174597970#2 -174597970#1 -28577490#2 -28577490#1 -28577490#0 -138265826#12 -138265826#11 391208993#0 -25375770#2 -25375770#3 -25375770#5 25375770#6 -25375770#10 -25141592#4 -25141592#8 -28269000#1"/>
    </person>
    <person id="17" depart="12240.00">
        <walk edges="391208988 -391208988 -33814393#0 -33814393#1 -33814393#3 -174609517#3 -38508400#1 172517196 306086241 61940356 172515808 -24495188 -61940355 201969576#0 -201969576#1 -201969576#4 -201969576#5 -201969576#6 201969576#7 -29497467 124812856#0 124812856#1 201956821#0 201956821#1.68 124812857#0 104010475#0 104012170 285716192#0.83 285716192#0 -32124743 -32124744 -201089423#2"/>
    </person>
    <person id="18" depart="12960.00">
        <walk edges="-30435490 52572753#0 77670297#0 -31773007 24762523#1 24762523#0 144659489 144659495 -24692391#1 -24692391#3 -26973015 145069303#4 -145069303#3 145069303#1 -145069303#0 -11014139#1 -24991573 24991571 64464432#2 64464432#1 64464408 64464399#1 64464399#0 64464430 25955089 64464420 30404130#1 30404130#0 -201444272#0 -201444272#2 201444272#3 29027727#0 -29027727#5 -29027727#6 29027727#7 29027727#9 152077572#0 152077572#2 152077572#2.79 -54858974 -542727960 30399316#0 30399316#0.52 -30399316#2 -51745097#0 51745097#1 4942660 170398274#0 -25344452#1 32253940"/>
    </person>
    <person id="19" depart="13680.00">
        <walk edges="-26729232#0 26729232#0 -38305646#4 -38305646#2 -38305646#1 -38305646#0 -23442105#4 -23442105#3 -23442105#2 -23442105#1 -23442105#0 -151167738#2 -151167738#1 -151167738#0 -201969576#5 -201969576#4 -201969576#1 201969576#0 -61940355 -24495188 172515808 61940356 306086241 172515812#0 305390333 172515814#1 172515814#0 151167768#1 151167768#0 -32923863#1 -32923863#4 -266607804#0 -266607804#1 -266607804#2 -266607803#0 -266607803#1 -266607803#2 -266607792#4 266607792#5 200949176#0 -200949176#0"/>
    </person>
    <person id="20" depart="14400.00">
        <walk edges="-42487767#3 203976003#4 30482626#1 -30482626#0 -32530113#4 -30054903#3 32530108#2 -32530108#5 -205182378#0 -205182378#2 -205182378#3 205182378#4 -205182378#5 205182378#6 -205182378#7 205182378#8 -205182378#11 -205182378#12 205182378#13 205182378#14 -205182378#15 37282688#5 -37282688#4 -37282688#3 -37282688#1 29458100#0 201278214#0 -29458645 -29458645.13 -29458645.28 131118468#0 131118468#0.16 131118468#1 54033673#2 54033673#0.28 54033673#0 200946853 151167768#1 33779209#1 gneE19 -174609517#3 -33814393#3 -33814393#1 -33814393#0 -391208988 40623117#0 -51244813#8 -51244813#7 -51244813#6 -51244813#5 -51244813#5.55 51244813#1 -51244813#0 26341775#7 -26339179#8 -26339179#7 32275042#2 32275042#0 -26339193#3 -26339193#2 -26339193#1 -26339193#0"/>
    </person>
    <person id="21" depart="15120.00">
        <walk edges="-201926265#3 201926265#2 -201926265#1 -201926265#0 23184252#1 -23184252#0 48742425#0 48742425#1 48742425#2 32881076#0 31624236#0 141058765#2.33 141058765#2 141058765#1 141058765#0 354967545#1 354967545#0.45 542630099 556434727 33279254#1 201956817 164051399 4324820 26071515#1 26071515#0 -54154922#1 -54154922#0 -42745461#1 -42745461#0 -42745460 -28132014#2 -28132014#0 -24978651 -115082348#0 -115082348#2 -115082348#3 -115082348#5 257907858#0 257907859#1 257907859#0 26451152#0 202070427#0 -25796375#0 33280102#2 33280102#1 33280102#0 -33280103#0 33280103#1 -33280103#2 -33280103#3 33280103#4 33280103#4.68 -97304242#1 97304242#2 -97304242#4 -97304242#5 97304242#6 -97304242#7 97304242#8 97304242#9 97304242#10 -39861708 -25638761#0 -25638761#1 -25638761#2 -25638761#3 -27196044#8 27196044#4 27196044#3 -27196044#2"/>
    </person>
    <person id="22" depart="15840.00">
        <walk edges="-436390153 -171007012#1 -171007012#0 157305700#4 40059576#0 202070435#13 -202070435#12 202070435#9 -202070435#8 -202070435#6.32 202070435#5 -202070435#4 -202070435#1 -202070435#0 201789798#1 201789798#0 201789799#2 201789799#1 -201789799#0 -201789797#0 -25597196#12 -25597196#11 25597196#7 153692837#3 -153692837#2 -153692837#1 175761129#3 202070429#3 -202070429#2 -202070429#1 202070429#0 151167728 26451152#0 202070427#0 -25796375#0 25796375#1 25796375#2 -25638527 25901702 25638529 -25895961 -274823622#3 -274823622#2 -274823622#1 -274823622#0 -274823622#0.68 -31342351#1 23009600#0 -23009600#2 -153220338#1 153220338#2 -51745097#0 51745097#1 144655546#0 -150746347#0 150746347#1 150746347#2 -150746347#3 -150746347#4 -144655547#0 144655547#1 144655547#2 379723623#0 379723623#2 -25366901#6 -25366901#5 -25366901#4 -25366901#3 -25366901#2 25366901#1 -41140024"/>
    </person>
    <person id="23" depart="16560.00">
        <walk edges="-26288509#1 -10427552 174596151#0 -174596151#2 -174596151#3 -174596151#4 -174596151#5 174596151#6 -174596151#7 -26341775#0.81 -26341775#0 26341775#1 26341775#2 26341775#4 -26341775#6 26341775#7 -51244813#0 51244813#1 -51244813#5.55 -51244813#5 -51244813#6 -51244813#7 -51244813#8 40623117#0 -391208988 -33814393#0 -33814393#1 -33814393#3 -174609517#3 gneE19 33779209#1 151167768#1 200946853 54033673#0 54033673#0.28 54033673#2 131118468#1 131118468#0.16 131118468#0 -29458645.28 -29458645.13 -29458645 201278214#0 201278216#0 29458647#0 31624236#0 141058765#2.33 141058765#2 141058765#1 141058765#0 354967545#1 354967545#0.45 542630099 556434727 33279254#1 201956817 164051399 4324820 26071515#1 26071515#0 -54154922#1 -54154922#0 -42745461#1 -42745461#0 -42745460 -28132014#2 -28132014#0 -24978651 -115082348#0 -115082348#2 -115082348#3 -115082348#5 257907858#0 257907859#1 257907859#0 26451152#0 202070427#0 -25796375#0 33280102#2 33280102#1 33280102#0 -33280103#0 33280103#1 -33280103#2 -33280103#3 33280103#4 33280103#4.68 -97304242#1 97304242#2 -97304242#4 -97304242#5 97304242#6 -97304242#7 97304242#8 97304242#9 97304242#10 -39861708 -25638761#0 -25638761#1 -25638761#2 -25638761#3 -32021365#3 -32021365#2 -32021365#1"/>
    </person>
    <person id="24" depart="17280.00">
        <walk edges="40888354#2 -40888354#2 -53396619#3 -53396619#4 -201950247#4 -201950247#5 -201950247#6 -40888350 -24634414#0 201201950#4 386687239#0 386687239#1 202092676#0 386687235 42745545#0 42745545#2 42745545#3 42745545#4 42745545#5 42745545#5.128 42745545#6 30399662#1 30399662#0 29119850.70 29119850 248012815#0 248012815#1 30399325 30399322#1.56 30399322#2 30399322#3.66 30399319 -152077572#2"/>
    </person>
    <person id="25" depart="18000.00">
        <walk edges="200912088 -315512845#2 315512845#3 315512845#4 -315512845#7 -51244814#4 -51244814#3 51244814#1 -51244814#0 -23184136#8 -23184136#6 -23184136#5 23184136#1 -201933878#8 -201933878#6 201933878#4 -201933878#3 -201933878#2 -201933878#1 -201933877#3"/>
    </person>
    <person id="26" depart="18360.00">
        <walk edges="115881039 -115881043#4 -115881043#2 -115881043#0 201953160#0 201953160#3 556434727 33279254#1 201956818#2 201956818#5 164051398 25188982#0 -25192758 203971378#0 -37480109 90587320 90587320.64 -201926266 -25380714#1 -25597196#4 -25596855#3 -25596855#1 25596855#0 -25596974#0"/>
    </person>
    <person id="27" depart="18720.00">
        <walk edges="-138300620#6 176550249#3 176550249#4 -174800513 -201201945#0.78 -201201945#0 -201201945#1 -201201945#2 201201945#3 -201201945#7 -201201945#8 201089420#0 25117391#0 25117391#2"/>
    </person>
    <person id="28" depart="19080.00">
        <walk edges="22690206#2 22690206#1 -22690206#0 22690205#2 -22690205#1 233675413#4 233675413#7 -139230366 27920078#0 27920078#1 104012170 104010475#0 124812857#0 201956821#1.68 201956821#0 124812856#1 124812856#0 -29497467 201969576#7 -201969576#6 -201969576#5 -201969576#4 -201969576#1 201969576#0 -61940355 -24495188 172515808 61940356 306086241 172515812#0 305390333 356952270 54033673#0 54033673#0.28 54033673#2 131118468#1 131118468#0.16 131118468#0 -29458645.28 -29458645.13 -29458645 201278214#0 29458100#0 -37282688#1 -37282688#3 -37282688#4 37282688#5 -205182378#15 205182378#14 205182378#13 -205182378#12 -201278210#9 -201278210#8 -201278210#6 -20405617#0 -20405617#1 -20405617#2 -20405617#3 -20405617#4 20314044#1 -20314044#0 -57827563#3 -20405628#2 -20405627 20405626#1"/>
    </person>
    <person id="29" depart="19440.00">
        <walk edges="140579902 -201956814#0 -391891457 -26372056 -26729232#2 26729232#0 173169612 -173169611#4 -173169611#3 -173169611#0 201956821#0 201956821#1.68 201956811#0 -36689751#2 -33102476 18909064 gneE3 -103512667#0 -103512667#1 -103512667#2 145069313#2 -145069316#1 145069316#0 145069311#0 32229742#5 32229742#4 32229742#3 32229742#1 32229741 145069286#0 145069391 145069373#0 -24982688#4 -24982688#2 -24982688#1 -24982688#1.52 -145069366#3 -145069366#2 32350852#0 -32350852#3 -32350852#4 51857519#0 161678034#0 -161678034#1 161678034#2 161678034#2.30 161678034#2.46 -164051429#0 -164051429#1 -10425611#0.35 -10425611#0 -10425611#1 -90587323 -37480109 90587320 90587320.64 -201926266 30482638#0 30482638#3 -25640150 92026769#12 92026769#6 -92026769#5"/>
    </person>
    <person id="30" depart="19800.00">
        <walk edges="-23184143#5 -23184143#6 23184143#7 -51244815#3 -51244815#2 -51244815#1 51244815#0"/>
    </person>
    <person id="31" depart="20160.00">
        <walk edges="-51856496#4 51856496#5 -51856496#7 51856496#8 -204388144#0 -204388144#1 18909064 gneE3 -145069347#2 29002239 88903284 145069350#1 145069350#0 29458096 29238013 -51856499 -51856498 -51856497 -29458095 -379514686 -29238182 -29238183#0 -29238184#1 -29238020#0 -51856500 29238022 -80369245 -80369229 -80369257 -80369240 -32200415#1 -32200414#1 29027839#0 -29027839#2 -31343367#1 29048562#0 -11014139#1 -24991573 24991571 64464432#2 64464432#1 64464408 64464399#1 64464399#0 64464430 25955089 64464420 266567301#1 266567304#0 305390325#3 305390325#0 305495773#0 266507551 266507552#0 257907859#1 257907859#0 26451152#0 202070427#0 -25796375#0 33280102#2 33280102#1 33280102#0 -33280103#0 33280103#1 -33280103#2 -33280103#3 33280103#4 33280103#4.68 -97304242#1 25626605#0 25626605#1 25626605#2 25626605#4 60064938#0 -28133177#1 -28133177#0"/>
    </person>
    <person id="32" depart="20520.00">
        <walk edges="-42487766#2 201201935#0 -28111977#0 -28111977#1 28111977#2 -28111977#3 -28111977#4 28111977#5 -28111977#6 -28111977#7 28111977#8 -28111977#9 28111977#10 -653473568#1 -653473569#0 25149001#5 -25149001#4 25149001#3 25149001#1 -25149001#0 -173169611#0 124812856#1 124812856#0 -29497467 201969576#7 -201969576#6 -201969576#5 -201969576#4 -201969576#1 201969576#0 -61940355 -24495188 172515808 61940356 306086241 172517196 -38508400#1 -174609517#3 -33814393#3 -33814393#1 -33814393#0 -391208988 -26339462#3 201933877#0 -201933879#6 -201933879#3 -201933879#1 174597970#7 -174597970#6 -174597970#3 -174597970#2 -174597970#1 -28577490#2 -28577490#1 -28577490#0 -138265826#12 -138265826#11 391208993#0 -25375770#2 -25375770#3 -25375770#5"/>
    </person>
    <person id="33" depart="20880.00">
        <walk edges="61738383 306431423#1 306431423#0 201950260 -26346716#2 -55691387 -55691388#1 -55691388#0 -26450419#4 26450419#2 26450419#1 -26450419#0 201950261#4 -201950261#3 -201950261#2 -201950261#1 -201950261#0 -51244814#4 -51244814#3 51244814#1 -51244814#0 -23184136#8 -23184136#6 -23184136#5 23184136#1 23184136#0 -51244813#0 51244813#1 -51244813#5.55 -51244813#5 -51244813#6 -51244813#7 -51244813#8 40623117#0 -391208988 -33814393#0 -33814393#1 -33814393#3 -174609517#3 -38508400#1 172517196 306086241 61940356 172515808 -24495188 -61940355 201969576#0 -201969576#1 -201969576#4 -201969576#5 -201969576#6 201969576#7 -29497467 124812856#0 124812856#1 -173169611#0 -25149001#0 25149001#1 25149001#3 -25149001#4 25149001#5 -653473569#0 -653473568#1 -653473568#0 -18813598#8 18813598#7 18813598#2 18813598#0 -18809673#1.275 -18809673#6 -23621955#1 -23621955#2"/>
    </person>
    <person id="34" depart="21240.00">
        <walk edges="-37255730 -37255717#6 -37255717#5 -37255717#4 -37255717#3 37255717#0 -391606911#1 -391606911#2 -391606911#3 -391606911#4 -266561174#1 -27830333#0 27830333#1 -266561177#0 266561177#1 136728344#0 -136728344#2 -136728344#3 -136728344#4 -136728344#5 -130185488#0 -130185488#2 -130185488#3 -35926528#1 -35926528#2 128361096 449057052 378946907 379795373 449057060 148527692#0 148527692#1 -128361102#1 285549250#0 -201963533#0 -201963533#1.145 -201963533#1.120 -201963533#1 -201963533#4 -201963533#5 -136728347#4 -233675413#0 -233675413#1 -233675413#2 -233675413#3 233675413#4 233675413#7 -139230366 27920078#0 27920078#1 104012170 104010475#0 124812857#0 201956821#1.68 201956821#0 124812856#1 124812856#0 -29497467 201969576#7 -201969576#6 -201969576#5 -201969576#4 -201969576#1 201969576#0 -61940355 -24495188 172515808 61940356 306086241 172517196 -38508400#1 -174609517#3 -33814393#3 -33814393#1 -33814393#0 -391208988 40623117#0 -51244813#8 -51244813#7 -51244813#6 -51244813#5 -51244813#5.55 51244813#1 -51244813#0 23184136#0 23184136#1 -23184136#5 -23184136#6 -23184136#8 -51244814#0 51244814#1 -51244814#3 -51244814#4 -201950261#0 -201950261#1 -201950261#2 -201950261#3 201950261#4 -26450419#0 26450419#1 26450419#2 -26450419#4 -55691388#0 -55691388#1 -23183726#2 -23183726#1 -23183726#0 -26346717#3 -23183649#4"/>
    </person>
    <person id="35" depart="21600.00">
        <walk edges="392631301 23622107#0 23622107#3 -23622107#6 -23622107#7 -23622107#8 25341141#0 25341141#1 27998319 378946911 201201947 -164051420#0 -164051420#2 -24754881#1 24754881#2 -24754881#7 -24754837#7 24754837#4 24754837#3 -24754837#2 -24754837#1 -24754837#0 -393420116#5 -393420116#4 393420116#0 -266561178#1 -307562643#2 -148527691#1 148527691#2 -37256210#1"/>
    </person>
    <person id="36" depart="21840.00">
        <walk edges="-54169231#2 -26677216#1 -26677216#2 26677216#3 23166741#2 -24634414#0 -24634414#1 24634414#2 -24634414#3 -24634414#4 24634414#5 24634414#5.51 -32999434#1 201089423#0 201089423#2 -32124744 -32124743 285716192#0 285716192#0.83 104012170 104010475#0 124812857#0 201956821#1.68 201956821#0 -173169611#0 -25149001#0 -25188977"/>
    </person>
    <person id="37" depart="22080.00">
        <walk edges="147014273#0 -201400763#0 22603939 -22486125 -41494741#1 30315925 22603944#1 22603944#0 21224502 -141058755#0 141058755#1 141058755#2 -390842192#1 390842192#2 -390842192#4 32530108#0 32530108#2 -32530108#5 -205182378#0 -205182378#2 -205182378#3 205182378#4 -205182378#5 205182378#6 -205182378#7 205182378#8 -205182378#11 -205182378#12 205182378#13 205182378#14 -205182378#15 37282688#5 -37282688#4 -37282688#3 -37282688#1 29458100#0 201278214#0 -29458645 -29458645.13 -29458645.28 131118468#0 131118468#0.16 131118468#1 54033673#2 54033673#0.28 54033673#0 356952270 305390333 172515812#0 306086241 61940356 172515808 -24495188 -61940355 201969576#0 -201969576#1 -201969576#4 -201969576#5 -201969576#6 201969576#7 -29497467 124812856#0 124812856#1 201956821#0 201956821#1.68 124812857#0 104010475#0 104012170 27920078#1 27920078#0 -139230366 233675413#7 233675413#4 -233675413#3 -233675413#2 233675413#2"/>
    </person>
    <person id="38" depart="22320.00">
        <walk edges="26471752#0 -32923867#3 -32923867#4 -379723624#0 -379723624#1 130996518#0 -233673423 -32201044#2 -32201044#1 145069336#0 145069336#1 145069336#2 145069280#0 145069391 145069286#0 32229741 32229742#1 32229742#3 32229742#4 32229742#5 145069311#0 145069316#0 -145069316#1 145069313#2 -103512667#2 -103512667#1 -103512667#0 gneE3 18909064 -33102476 -36689751#2 201956811#0 124812857#0 -164051413 -653473569#5 -653473569#4 -653473569#2 653473569#1 -653473569#0 -653473568#1 28111977#10 -28111977#9 28111977#8 -28111977#7 -28111977#6 28111977#5 -28111977#4 -28111977#3 28111977#2 -28111977#1 -28111977#0 -393420106#1 -42487766#2 -23621940#1 -42674133#0 42674133#1 42674133#2 -42674133#5 -42674133#8 -23622107#8 -23622107#7 23622128#0"/>
    </person>
    <person id="39" depart="22560.00">
        <walk edges="-24982688#1 -24982688#2 -24982688#4 -32201172 62798408 -145069357 -103671248 gneE154 145069272 -29119898 -32924041#3 104236369 -108310253 29458096 51856495#0 -29458097#2 32978638#1 -32978638#0 51857518#1 168702040#1 168702040#2 168702040#3 168702040#4 -315358253#3 -315358253#2 -315358253#1 315358253#0 -315358248#1 315358245.27 202092675 -4942389#1 -4942389#0 -136436466 -315358251#1 315358242#3 -201950247#8"/>
    </person>
    <person id="40" depart="22800.00">
        <walk edges="138300621#1 -138300621#0 -38305646#2 -38305646#4 173169612 -173169611#4 -173169611#3 -173169611#0 201956821#0 201956821#1.68 201956811#0 -36689751#2 -33102476 18909064 gneE3 -103512667#0 -103512667#1 -103512667#2 145069313#2 -145069316#1 145069316#0 145069311#0 32229742#5 32229742#4 32229742#3 32229742#1 -145069371#1 145069371#0 29002251#0 29002248#1"/>
    </person>
    <person id="41" depart="23040.00">
        <walk edges="-92026769#11 92026769#12 -25640150 30482638#3 30482638#0 -201926266 90587320.64 90587320 -37480109 203971378#0 -25192758 25188982#0 164051398 201956818#5 201956818#2 33279254#1 556434727 542630099 354967545#0.45 354967545#1 141058765#0 141058765#1 141058765#2 141058765#2.33 31624236#0 32881076#0 48742425#2 48742425#1 48742425#0 -205182378#15 205182378#14 205182378#13 -205182378#12 -205182378#11 205182378#8 -205182378#7 205182378#6 -205182378#5 205182378#4 -20588635#3 20588635#2"/>
    </person>
    <person id="42" depart="23280.00">